14

O          1.10056        0.15101       -0.10683
N          2.32609        0.10764       -0.03099
O          3.05047       -0.39127        0.83078
O          2.96449        0.74129       -1.12420
C          4.38333        0.68895       -1.03273
C          4.97081        1.39641       -2.24944
O          6.38966        1.34449       -2.15776
N          7.02800        1.98130       -3.24916
O          6.30359        2.48213       -4.10979
O          8.25354        1.93831       -3.17316
H          4.73551       -0.35053       -1.01839
H          4.73485        1.19141       -0.12240
H          4.61811        2.43571       -2.26385
H          4.61979        0.89379       -3.15988
